/*--------------------------------*- C++ -*----------------------------------*\
| =========                 |                                                 |
| \\      /  F ield         | OpenFOAM: The Open Source CFD Toolbox           |
|  \\    /   O peration     | Version:  v1906                                 |
|   \\  /    A nd           | Web:      www.OpenFOAM.com                      |
|    \\/     M anipulation  |                                                 |
\*---------------------------------------------------------------------------*/
FoamFile
{
    version     2.0;
    format      binary;
    class       polyBoundaryMesh;
    arch        "LSB;label=32;scalar=64";
    location    "constant/polyMesh";
    object      boundary;
}
// * * * * * * * * * * * * * * * * * * * * * * * * * * * * * * * * * * * * * //

7
(
    inlet
    {
        type            patch;
        nFaces          900;
        startFace       368700;
    }
    outlet
    {
        type            patch;
        nFaces          900;
        startFace       369600;
    }
    floor
    {
        type            patch;
        nFaces          4200;
        startFace       370500;
    }
    membrane
    {
        type            patch;
        nFaces          3000;
        startFace       374700;
    }
    bottom
    {
        type            patch;
        nFaces          1200;
        startFace       377700;
    }
    frontSide
    {
        type            patch;
        nFaces          4200;
        startFace       378900;
    }
    backSide
    {
        type            patch;
        nFaces          4200;
        startFace       383100;
    }
)

// ************************************************************************* //
