/*--------------------------------*- C++ -*----------------------------------*\
| =========                 |                                                 |
| \\      /  F ield         | OpenFOAM: The Open Source CFD Toolbox           |
|  \\    /   O peration     | Version:  v1906                                 |
|   \\  /    A nd           | Web:      www.OpenFOAM.com                      |
|    \\/     M anipulation  |                                                 |
\*---------------------------------------------------------------------------*/
FoamFile
{
    version     2.0;
    format      binary;
    class       polyBoundaryMesh;
    arch        "LSB;label=32;scalar=64";
    location    "constant/polyMesh";
    object      boundary;
}
// * * * * * * * * * * * * * * * * * * * * * * * * * * * * * * * * * * * * * //

6
(
    inlet
    {
        type            patch;
        nFaces          30;
        startFace       6460;
    }
    outlet
    {
        type            patch;
        nFaces          30;
        startFace       6490;
    }
    floor
    {
        type            wall;
        inGroups        1(wall);
        nFaces          110;
        startFace       6520;
    }
    membrane
    {
        type            wall;
        inGroups        1(wall);
        nFaces          100;
        startFace       6630;
    }
    bottom
    {
        type            wall;
        inGroups        1(wall);
        nFaces          10;
        startFace       6730;
    }
    defaultFaces
    {
        type            empty;
        inGroups        1(empty);
        nFaces          6600;
        startFace       6740;
    }
)

// ************************************************************************* //
