/*--------------------------------*- C++ -*----------------------------------*\
| =========                 |                                                 |
| \\      /  F ield         | OpenFOAM: The Open Source CFD Toolbox           |
|  \\    /   O peration     | Version:  v1906                                 |
|   \\  /    A nd           | Web:      www.OpenFOAM.com                      |
|    \\/     M anipulation  |                                                 |
\*---------------------------------------------------------------------------*/
FoamFile
{
    version     2.0;
    format      binary;
    class       polyBoundaryMesh;
    arch        "LSB;label=32;scalar=64";
    location    "constant/polyMesh";
    object      boundary;
}
// * * * * * * * * * * * * * * * * * * * * * * * * * * * * * * * * * * * * * //

5
(
    inlet
    {
        type            patch;
        nFaces          20;
        startFace       3780;
    }
    outlet
    {
        type            patch;
        nFaces          20;
        startFace       3800;
    }
    floor
    {
        type            wall;
        inGroups        1(wall);
        nFaces          100;
        startFace       3820;
    }
    membrane
    {
        type            wall;
        inGroups        1(wall);
        nFaces          100;
        startFace       3920;
    }
    defaultFaces
    {
        type            empty;
        inGroups        1(empty);
        nFaces          4200;
        startFace       4020;
    }
)

// ************************************************************************* //
