/*--------------------------------*- C++ -*----------------------------------*\
| =========                 |                                                 |
| \\      /  F ield         | OpenFOAM: The Open Source CFD Toolbox           |
|  \\    /   O peration     | Version:  v1906                                 |
|   \\  /    A nd           | Web:      www.OpenFOAM.com                      |
|    \\/     M anipulation  |                                                 |
\*---------------------------------------------------------------------------*/
FoamFile
{
    version     2.0;
    format      binary;
    class       polyBoundaryMesh;
    arch        "LSB;label=32;scalar=64";
    location    "constant/polyMesh";
    object      boundary;
}
// * * * * * * * * * * * * * * * * * * * * * * * * * * * * * * * * * * * * * //

7
(
    spacer
    {
        type            patch;
        nFaces          66602;
        startFace       3172902;
    }
    membrane
    {
        type            patch;
        nFaces          301168;
        startFace       3239504;
    }
    frontside
    {
        type            patch;
        nFaces          2746;
        startFace       3540672;
    }
    outlet
    {
        type            patch;
        nFaces          1778;
        startFace       3543418;
    }
    backside
    {
        type            patch;
        nFaces          2692;
        startFace       3545196;
    }
    inlet
    {
        type            patch;
        nFaces          1782;
        startFace       3547888;
    }
    top
    {
        type            patch;
        nFaces          12724;
        startFace       3549670;
    }
)

// ************************************************************************* //
