/*--------------------------------*- C++ -*----------------------------------*\
| =========                 |                                                 |
| \\      /  F ield         | OpenFOAM: The Open Source CFD Toolbox           |
|  \\    /   O peration     | Version:  v1906                                 |
|   \\  /    A nd           | Web:      www.OpenFOAM.com                      |
|    \\/     M anipulation  |                                                 |
\*---------------------------------------------------------------------------*/
FoamFile
{
    version     2.0;
    format      binary;
    class       polyBoundaryMesh;
    arch        "LSB;label=32;scalar=64";
    location    "constant/polyMesh";
    object      boundary;
}
// * * * * * * * * * * * * * * * * * * * * * * * * * * * * * * * * * * * * * //

6
(
    inlet
    {
        type            patch;
        nFaces          30;
        startFace       8230;
    }
    outlet
    {
        type            patch;
        nFaces          30;
        startFace       8260;
    }
    floor
    {
        type            patch;
        nFaces          140;
        startFace       8290;
    }
    membrane
    {
        type            patch;
        nFaces          100;
        startFace       8430;
    }
    bottom
    {
        type            patch;
        nFaces          40;
        startFace       8530;
    }
    defaultFaces
    {
        type            empty;
        inGroups        1(empty);
        nFaces          8400;
        startFace       8570;
    }
)

// ************************************************************************* //
