/*--------------------------------*- C++ -*----------------------------------*\
| =========                 |                                                 |
| \\      /  F ield         | OpenFOAM: The Open Source CFD Toolbox           |
|  \\    /   O peration     | Version:  v1906                                 |
|   \\  /    A nd           | Web:      www.OpenFOAM.com                      |
|    \\/     M anipulation  |                                                 |
\*---------------------------------------------------------------------------*/
FoamFile
{
    version     2.0;
    format      binary;
    class       polyBoundaryMesh;
    arch        "LSB;label=32;scalar=64";
    location    "constant/polyMesh";
    object      boundary;
}
// * * * * * * * * * * * * * * * * * * * * * * * * * * * * * * * * * * * * * //

7
(
    inlet
    {
        type            patch;
        nFaces          600;
        startFace       86900;
    }
    outlet
    {
        type            patch;
        nFaces          600;
        startFace       87500;
    }
    floor
    {
        type            patch;
        nFaces          1500;
        startFace       88100;
    }
    membrane
    {
        type            patch;
        nFaces          900;
        startFace       89600;
    }
    bottom
    {
        type            patch;
        nFaces          600;
        startFace       90500;
    }
    frontSide
    {
        type            patch;
        nFaces          1000;
        startFace       91100;
    }
    backSide
    {
        type            patch;
        nFaces          1000;
        startFace       92100;
    }
)

// ************************************************************************* //
