/*--------------------------------*- C++ -*----------------------------------*\
| =========                 |                                                 |
| \\      /  F ield         | OpenFOAM: The Open Source CFD Toolbox           |
|  \\    /   O peration     | Version:  v1906                                 |
|   \\  /    A nd           | Web:      www.OpenFOAM.com                      |
|    \\/     M anipulation  |                                                 |
\*---------------------------------------------------------------------------*/
FoamFile
{
    version     2.0;
    format      binary;
    class       polyBoundaryMesh;
    arch        "LSB;label=32;scalar=64";
    location    "constant/polyMesh";
    object      boundary;
}
// * * * * * * * * * * * * * * * * * * * * * * * * * * * * * * * * * * * * * //

7
(
    membrane
    {
        type            patch;
        nFaces          23665;
        startFace       559045;
    }
    spacer
    {
        type            patch;
        nFaces          12682;
        startFace       582710;
    }
    frontside
    {
        type            cyclicAMI;
        neighbourPatch  backside;
        transform translational;
        separationVector (0 0 -0.00806);
        nFaces          1352;
        startFace       595392;
    }
    inlet
    {
        type            patch;
        nFaces          1373;
        startFace       596744;
    }
    outlet
    {
        type            patch;
        nFaces          1396;
        startFace       598117;
    }
    top
    {
        type            patch;
        nFaces          7718;
        startFace       599513;
    }
    backside
    {
        type            cyclicAMI;
        neighbourPatch  frontside;
        transform translational;
        separationVector (0 0 0.00806);
        nFaces          1404;
        startFace       607231;
    }
)

// ************************************************************************* //
