/*--------------------------------*- C++ -*----------------------------------*\
| =========                 |                                                 |
| \\      /  F ield         | OpenFOAM: The Open Source CFD Toolbox           |
|  \\    /   O peration     | Version:  v1906                                 |
|   \\  /    A nd           | Web:      www.OpenFOAM.com                      |
|    \\/     M anipulation  |                                                 |
\*---------------------------------------------------------------------------*/
FoamFile
{
    version     2.0;
    format      binary;
    class       polyBoundaryMesh;
    arch        "LSB;label=32;scalar=64";
    location    "constant/polyMesh";
    object      boundary;
}
// * * * * * * * * * * * * * * * * * * * * * * * * * * * * * * * * * * * * * //

6
(
    inlet
    {
        type            patch;
        nFaces          750;
        startFace       130950;
    }
    outlet
    {
        type            patch;
        nFaces          750;
        startFace       131700;
    }
    floor
    {
        type            patch;
        nFaces          1500;
        startFace       132450;
    }
    membrane
    {
        type            patch;
        nFaces          1500;
        startFace       133950;
    }
    frontSide
    {
        type            patch;
        nFaces          1800;
        startFace       135450;
    }
    backSide
    {
        type            patch;
        nFaces          1800;
        startFace       137250;
    }
)

// ************************************************************************* //
