/*--------------------------------*- C++ -*----------------------------------*\
| =========                 |                                                 |
| \\      /  F ield         | OpenFOAM: The Open Source CFD Toolbox           |
|  \\    /   O peration     | Version:  v1906                                 |
|   \\  /    A nd           | Web:      www.OpenFOAM.com                      |
|    \\/     M anipulation  |                                                 |
\*---------------------------------------------------------------------------*/
FoamFile
{
    version     2.0;
    format      binary;
    class       polyBoundaryMesh;
    arch        "LSB;label=32;scalar=64";
    location    "constant/polyMesh";
    object      boundary;
}
// * * * * * * * * * * * * * * * * * * * * * * * * * * * * * * * * * * * * * //

7
(
    inlet
    {
        type            patch;
        nFaces          200;
        startFace       68200;
    }
    outlet
    {
        type            patch;
        nFaces          200;
        startFace       68400;
    }
    floor
    {
        type            patch;
        nFaces          1200;
        startFace       68600;
    }
    membrane
    {
        type            patch;
        nFaces          1000;
        startFace       69800;
    }
    bottom
    {
        type            patch;
        nFaces          200;
        startFace       70800;
    }
    frontSide
    {
        type            patch;
        nFaces          2400;
        startFace       71000;
    }
    backSide
    {
        type            patch;
        nFaces          2400;
        startFace       73400;
    }
)

// ************************************************************************* //
