/*--------------------------------*- C++ -*----------------------------------*\
| =========                 |                                                 |
| \\      /  F ield         | OpenFOAM: The Open Source CFD Toolbox           |
|  \\    /   O peration     | Version:  v1906                                 |
|   \\  /    A nd           | Web:      www.OpenFOAM.com                      |
|    \\/     M anipulation  |                                                 |
\*---------------------------------------------------------------------------*/
FoamFile
{
    version     2.0;
    format      ascii;
    class       dictionary;
    object      blockMeshDict;
}

// * * * * * * * * * * * * * * * * * * * * * * * * * * * * * * * * * * * * * //

scale   0.001;

vertices
(
    (-10 1 0)
    (0 1 0)
    (5 1 0)
    (-10 0 0)
    (0 0 0)
    (5 0 0)

    (-10 1 0.1)
    (0 1 0.1)
    (5 1 0.1)
    (-10 0 0.1)
    (0 0 0.1)
    (5 0 0.1)
);

blocks
(
    hex (3 4 1 0 9 10 7 6) (10 30 1) simpleGrading (0.05 10 1) //inlet box
    hex (4 5 2 1 10 11 8 7) (100 30 1) simpleGrading (1 10 1) //membrane box
);

edges
(
);

patches
(
    patch inlet
        (
            (3 0 6 9)
        )

    patch outlet
        (
            (5 2 8 11)
        )

    wall floor
        (
            (0 1 7 6)
            (1 2 8 7)
        )

    wall membrane
        (
            (4 5 11 10)
        )
    
    wall bottom
        (
            (3 4 10 9)
        )

);

mergePatchPairs
(
);


// ************************************************************************* //
