/*--------------------------------*- C++ -*----------------------------------*\
| =========                 |                                                 |
| \\      /  F ield         | OpenFOAM: The Open Source CFD Toolbox           |
|  \\    /   O peration     | Version:  v1906                                 |
|   \\  /    A nd           | Web:      www.OpenFOAM.com                      |
|    \\/     M anipulation  |                                                 |
\*---------------------------------------------------------------------------*/
FoamFile
{
    version     2.0;
    format      ascii;
    class       dictionary;
    location    "system";
    object      dynamicMeshDict;
}

// * * * * * * * * * * * * * * * * * * * * * * * * * * * * * * * * * * * * * //

dynamicFvMesh   dynamicMotionSolverFvMesh;

motionSolverLibs ( "libfvMotionSolvers.so" );

/*
solver          velocityLaplacian;
velocityLaplacianCoeffs
{
    diffusivity     directional ( 0 100 0 );
	//diffusivity  uniform;
}
*/

solver          displacementLaplacian;
displacementLaplacianCoeffs
{
    diffusivity     quadratic inversePointDistance (membrane);
}


// ************************************************************************* //
