/*--------------------------------*- C++ -*----------------------------------*\
| =========                 |                                                 |
| \\      /  F ield         | OpenFOAM: The Open Source CFD Toolbox           |
|  \\    /   O peration     | Version:  v1906                                 |
|   \\  /    A nd           | Web:      www.OpenFOAM.com                      |
|    \\/     M anipulation  |                                                 |
\*---------------------------------------------------------------------------*/
FoamFile
{
    version     2.0;
    format      ascii;
    class       volScalarField;
    object      C_H4SiO4;
}
// * * * * * * * * * * * * * * * * * * * * * * * * * * * * * * * * * * * * * //

dimensions      [0 -3 0 0 1 0 0];

internalField   uniform 1;

boundaryField
{
    inlet
    {
        type            zeroGradient;
    }

    outlet
    {
        type            zeroGradient;
    }

    top
    {
        type            zeroGradient;
    }

   membrane
    {
        type            zeroGradient;
    }

    bottom
    {
        type        zeroGradient;
    }

    frontside
    {
        type zeroGradient;
    }

    backside
    {
        type zeroGradient;
    }

    spacer
    {
        type zeroGradient;
    }


    //frontAndBackPlanes
    //{
    //    type            empty;
    //}
}

// ************************************************************************* //
