/*--------------------------------*- C++ -*----------------------------------*\
| =========                 |                                                 |
| \\      /  F ield         | OpenFOAM: The Open Source CFD Toolbox           |
|  \\    /   O peration     | Version:  v1906                                 |
|   \\  /    A nd           | Web:      www.OpenFOAM.com                      |
|    \\/     M anipulation  |                                                 |
\*---------------------------------------------------------------------------*/
FoamFile
{
    version     2.0;
    format      ascii;
    class       volScalarField;
    object      C_Sitot;
}
// * * * * * * * * * * * * * * * * * * * * * * * * * * * * * * * * * * * * * //

dimensions      [0 -3 0 0 1 0 0];

internalField   uniform 2;

boundaryField
{
    inlet
    {
        type            fixedValue;
        value           uniform 2;
    }

    outlet
    {
        type            zeroGradient;
    }

    floor
    {
        type            zeroGradient;
    }

   membrane
    {
        type            fixedValue;
        value           uniform 10;
    }

    frontAndBackPlanes
    {
        type            empty;
    }
}

// ************************************************************************* //
