/*--------------------------------*- C++ -*----------------------------------*\
| =========                 |                                                 |
| \\      /  F ield         | OpenFOAM: The Open Source CFD Toolbox           |
|  \\    /   O peration     | Version:  v1906                                 |
|   \\  /    A nd           | Web:      www.OpenFOAM.com                      |
|    \\/     M anipulation  |                                                 |
\*---------------------------------------------------------------------------*/
FoamFile
{
    version     2.0;
    format      ascii;
    class       volScalarField;
    object      r_precip;
}
// * * * * * * * * * * * * * * * * * * * * * * * * * * * * * * * * * * * * * //

dimensions      [0 -2 -1 0 1 0 0];

internalField   uniform 0;

boundaryField
{
    inlet
    {
        type            fixedValue;
        value           uniform 0;
    }

    outlet
    {
        type            fixedValue;
        value           uniform 0;
    }

    top
    {
        type            fixedValue;
        value           uniform 0;
    }

   membrane
    {
        type            fixedValue;
        value           uniform 0;
    }

    bottom
    {
        type            fixedValue;
        value           uniform 0;
    }

    frontside
    {
        type            fixedValue;
        value           uniform 0;
    }

    backside
    {
        type            fixedValue;
        value           uniform 0;
    }

    spacer
    {
        type            fixedValue;
        value           uniform 0;
    }

    //frontAndBackPlanes
    //{
    //    type            empty;
    //}
}

// ************************************************************************* //
