/*--------------------------------*- C++ -*----------------------------------*\
| =========                 |                                                 |
| \\      /  F ield         | OpenFOAM: The Open Source CFD Toolbox           |
|  \\    /   O peration     | Version:  v1906                                 |
|   \\  /    A nd           | Web:      www.OpenFOAM.com                      |
|    \\/     M anipulation  |                                                 |
\*---------------------------------------------------------------------------*/
FoamFile
{
    version     2.0;
    format      ascii;
    class       volVectorField;
    object      U;
}
// * * * * * * * * * * * * * * * * * * * * * * * * * * * * * * * * * * * * * //

dimensions      [0 1 -1 0 0 0 0];

internalField   uniform (0 0 0);

boundaryField
{

    inlet
    {
        type            fixedValue;
        value uniform (0.5 0 0);
        //type            zeroGradient;
    }

    outlet
    {
        type            zeroGradient;
    }

    floor
    {
        type            fixedValue;
        value uniform (0 0 0);
    }

   membrane
    {
        //type            movingWallVelocity;
        //value           uniform (0 -0.000014 0);
        //type              noSlip;
        //type            movingWallVelocity;
        //value           uniform (0 -0.000014 0);

        type            groovyBC;
        //valueExpression "vector(0, -p/10000000, 0)";
        valueExpression "vector(0, -Lp * (Ptm - osmotic_coefficient*C_salt), 0)";
        value           uniform (0 0 0);
        variables       "osmotic_coefficient=0.4;Lp=3.9e-12;Ptm=(p-100000*p/p);C_salt=(C_Na + C_Cl + C_Sitot + C_SiO2);";//"P = p; p_permSide = 100000; deltaPtm=P;"; // | C=internalField(C_Cl);vw=mag(U);D=2.03e-9;deltay=mag(delta());";
    }

    bottom
    {
        //type            movingWallVelocity;
        //value uniform (0 0 0);
        type            movingWallVelocity;
        value uniform (0 0 0);
    }

    frontAndBackPlanes
    {
        type            empty;
    }
}

// ************************************************************************* //
